<?xml version="1.0" encoding="UTF-8"?>
<routes>
    <vType id="car" accel="2.6" decel="4.5" sigma="0.5" length="5" maxSpeed="50"/>
    <route id="route1" edges="edge1"/>
    <flow id="flow1" type="car" route="route1" begin="0" end="3600" probability="0.2"/>
</routes>